units(length='cm', time='s', quantity='mol', act_energy='kcal/mol')

ideal_gas(name='gas',
          elements="H D T C Ci O Oi N Ne Ar He Si S F Cl Br I X",
          species="""He      Ar      Ne      O2(2)   H2O(3)  N2(4)   NO(5)
                     NH3(6)  N2O(7)""",
          transport='Mix',
          initial_state=state(temperature=300.0, pressure=OneAtm))

ideal_interface(name='surface1',
                elements="H D T C Ci O Oi N Ne Ar He Si S F Cl Br I X",
                species="""X(1)      HX(9)     OX(10)    HOX(13)   H2OX(14)
                          N2X2(25)  N2X(26)   NOX(27)   H2NX(28)  H3NX(29)
                          HNX(49)   NX(59)    NOX2(76)""",
                site_density=1.86e-09,
                phases="gas",
          reactions='all',
                initial_state=state(temperature=300.0, pressure=OneAtm))

#-------------------------------------------------------------------------------
# Element data
#-------------------------------------------------------------------------------

element(symbol='Ci', atomic_mass=13.003)
element(symbol='D', atomic_mass=2.014)
element(symbol='Oi', atomic_mass=18.0)
element(symbol='T', atomic_mass=3.016)
element(symbol='X', atomic_mass=195.083)
#-------------------------------------------------------------------------------
# Species data
#-------------------------------------------------------------------------------

species(name='He',
        atoms='He:1',
        thermo=(NASA([200.00, 1000.00],
                     [ 2.50000000E+00,  0.00000000E+00,  0.00000000E+00,
                       0.00000000E+00,  0.00000000E+00, -7.45375000E+02,
                       9.28724000E-01]),
                NASA([1000.00, 6000.00],
                     [ 2.50000000E+00,  0.00000000E+00,  0.00000000E+00,
                       0.00000000E+00,  0.00000000E+00, -7.45375000E+02,
                       9.28724000E-01])),
        transport=gas_transport(geom='atom',
                                diam=2.576,
                                well_depth=10.2))

species(name='Ar',
        atoms='Ar:1',
        thermo=(NASA([200.00, 1000.00],
                     [ 2.50000000E+00,  0.00000000E+00,  0.00000000E+00,
                       0.00000000E+00,  0.00000000E+00, -7.45375000E+02,
                       4.37967000E+00]),
                NASA([1000.00, 6000.00],
                     [ 2.50000000E+00,  0.00000000E+00,  0.00000000E+00,
                       0.00000000E+00,  0.00000000E+00, -7.45375000E+02,
                       4.37967000E+00])),
        transport=gas_transport(geom='atom',
                                diam=3.33,
                                well_depth=136.501))

species(name='Ne',
        atoms='Ne:1',
        thermo=(NASA([200.00, 1000.00],
                     [ 2.50000000E+00,  0.00000000E+00,  0.00000000E+00,
                       0.00000000E+00,  0.00000000E+00, -7.45375000E+02,
                       3.35532000E+00]),
                NASA([1000.00, 6000.00],
                     [ 2.50000000E+00,  0.00000000E+00,  0.00000000E+00,
                       0.00000000E+00,  0.00000000E+00, -7.45375000E+02,
                       3.35532000E+00])),
        transport=gas_transport(geom='atom',
                                diam=3.758,
                                well_depth=148.6))

species(name='O2(2)',
        atoms='O:2',
        thermo=(NASA([100.00, 1074.56],
                     [ 3.53732181E+00, -1.21570928E-03,  5.31617817E-06,
                      -4.89443412E-09,  1.45845038E-12, -1.03858846E+03,
                       4.68368407E+00]),
                NASA([1074.56, 5000.00],
                     [ 3.15382426E+00,  1.67803800E-03, -7.69971009E-07,
                       1.51274711E-10, -1.08781798E-14, -1.04081879E+03,
                       6.16753877E+00])),
        transport=gas_transport(geom='linear',
                                diam=3.458,
                                well_depth=107.4,
                                polar=1.6,
                                rot_relax=3.8))

species(name='H2O(3)',
        atoms='H:2 O:1',
        thermo=(NASA([100.00, 1130.25],
                     [ 4.05763654E+00, -7.87943800E-04,  2.90880094E-06,
                      -1.47521964E-09,  2.12854962E-13, -3.02815867E+04,
                      -3.11366607E-01]),
                NASA([1130.25, 5000.00],
                     [ 2.84324565E+00,  2.75109326E-03, -7.81035842E-07,
                       1.07244643E-10, -5.79400410E-15, -2.99586106E+04,
                       5.91044721E+00])),
        transport=gas_transport(geom='nonlinear',
                                diam=2.605,
                                well_depth=572.402,
                                dipole=1.844,
                                rot_relax=4.0))

species(name='N2(4)',
        atoms='N:2',
        thermo=(NASA([200.00, 1000.00],
                     [ 3.53101000E+00, -1.23661000E-04, -5.02999000E-07,
                       2.43531000E-09, -1.40881000E-12, -1.04698000E+03,
                       2.96747000E+00]),
                NASA([1000.00, 6000.00],
                     [ 2.95258000E+00,  1.39690000E-03, -4.92632000E-07,
                       7.86010000E-11, -4.60755000E-15, -9.23949000E+02,
                       5.87189000E+00])),
        transport=gas_transport(geom='linear',
                                diam=3.621,
                                well_depth=97.53,
                                polar=1.76,
                                rot_relax=4.0))

species(name='NO(5)',
        atoms='N:1 O:1',
        thermo=(NASA([100.00, 1407.02],
                     [ 3.55718148E+00, -8.90571060E-04,  2.98553150E-06,
                      -2.08687561E-09,  4.65949875E-13,  9.95239684E+03,
                       4.55251498E+00]),
                NASA([1407.02, 5000.00],
                     [ 2.93798085E+00,  1.75424119E-03, -7.77004101E-07,
                       1.42651639E-10, -9.57838144E-15,  1.00390907E+04,
                       7.44011605E+00])),
        transport=gas_transport(geom='linear',
                                diam=3.621,
                                well_depth=97.53,
                                polar=1.76,
                                rot_relax=4.0))

species(name='NH3(6)',
        atoms='H:3 N:1',
        thermo=(NASA([100.00, 993.33],
                     [ 4.09068772E+00, -2.07163708E-03,  1.14752156E-05,
                      -9.47500324E-09,  2.61222190E-12, -6.69036403E+03,
                       2.22530808E-02]),
                NASA([993.33, 5000.00],
                     [ 2.12302067E+00,  6.45658953E-03, -2.31618467E-06,
                       3.93870042E-10, -2.58108324E-14, -6.32928862E+03,
                       9.35177287E+00])),
        transport=gas_transport(geom='nonlinear',
                                diam=2.92,
                                well_depth=481.001,
                                dipole=1.47,
                                rot_relax=10.0))

species(name='N2O(7)',
        atoms='N:2 O:1',
        thermo=(NASA([100.00, 1026.61],
                     [ 3.22183134E+00,  4.41472209E-03,  2.54399535E-06,
                      -6.06060786E-09,  2.45086810E-12,  8.76576984E+03,
                       6.72929523E+00]),
                NASA([1026.61, 5000.00],
                     [ 4.61743859E+00,  3.00863157E-03, -1.29223139E-06,
                       2.55912332E-10, -1.88712260E-14,  8.26676745E+03,
                      -1.07508656E+00])),
        transport=gas_transport(geom='linear',
                                diam=3.828,
                                well_depth=232.401,
                                rot_relax=1.0))

species(name='X(1)',
        atoms='X:1',
        thermo=(NASA([100.00, 1554.79],
                     [ 7.10148144E-03, -4.25627912E-05,  8.98555226E-08,
                      -7.80214407E-11,  2.32471659E-14, -8.76106013E-01,
                      -3.11214469E-02]),
                NASA([1554.79, 5000.00],
                     [ 1.60297302E-01, -2.52231685E-04,  1.14179388E-07,
                      -1.21467614E-11,  3.85758990E-16, -7.08087280E+01,
                      -9.09512410E-01])))

species(name='HX(9)',
        atoms='H:1 X:1',
        thermo=(NASA([100.00, 952.92],
                     [-3.80976314E-01,  5.47242013E-03,  2.60864007E-06,
                      -9.64895670E-09,  4.63917161E-12, -3.38030877E+03,
                       1.01729412E+00]),
                NASA([952.92, 5000.00],
                     [ 2.80343297E+00, -5.41109881E-04,  4.99544622E-07,
                      -7.55050884E-11,  3.06845145E-15, -4.32107366E+03,
                      -1.59438832E+01])))

species(name='OX(10)',
        atoms='O:1 X:1',
        thermo=(NASA([100.00, 888.27],
                     [-7.59000454E-01,  1.89866900E-02, -3.82467611E-05,
                       3.43549593E-08, -1.13970207E-11, -1.72327995E+04,
                       1.76012942E+00]),
                NASA([888.27, 5000.00],
                     [ 1.89890451E+00,  2.03301030E-03, -1.19979899E-06,
                       2.32688672E-10, -1.53515030E-14, -1.75083324E+04,
                      -9.64086377E+00])))

species(name='HOX(13)',
        atoms='H:1 O:1 X:1',
        thermo=(NASA([100.00, 914.57],
                     [-1.29516335E+00,  3.36479531E-02, -7.07730222E-05,
                       6.54332475E-08, -2.19418199E-11, -1.93439850E+04,
                       4.37634184E+00]),
                NASA([914.57, 5000.00],
                     [ 2.43523226E+00,  4.64631945E-03, -2.40006460E-06,
                       4.26397081E-10, -2.60645766E-14, -1.94957662E+04,
                      -1.03869262E+01])))

species(name='H2OX(14)',
        atoms='H:2 O:1 X:1',
        thermo=(NASA([100.00, 912.84],
                     [-1.34342208E+00,  3.66698127E-02, -7.99490480E-05,
                       7.74138954E-08, -2.68671706E-11, -3.23490296E+04,
                       1.10238400E+01]),
                NASA([912.84, 5000.00],
                     [ 1.12164733E+00,  8.16629070E-03, -4.02352032E-06,
                       7.20406376E-10, -4.51430154E-14, -3.20615470E+04,
                       3.39583083E+00])))

species(name='N2X2(25)',
        atoms='N:2 X:2',
        thermo=(NASA([100.00, 899.07],
                     [ 3.17988900E+00,  2.16745972E-03,  1.49948526E-05,
                      -2.58978952E-08,  1.15481723E-11, -1.28943412E+04,
                      -1.75805654E+01]),
                NASA([899.07, 5000.00],
                     [ 7.25771166E+00, -3.06811296E-03,  2.19621155E-06,
                      -4.40293987E-10,  2.93499924E-14, -1.41492381E+04,
                      -3.97208822E+01])),
        size=2.0)

species(name='N2X(26)',
        atoms='N:2 X:1',
        thermo=(NASA([100.00, 901.88],
                     [-1.25624696E+00,  3.72147337E-02, -9.15798635E-05,
                       9.40903832E-08, -3.39887369E-11, -3.81700203E+03,
                       1.47534501E+01]),
                NASA([901.88, 5000.00],
                     [-2.95560642E-01,  9.13295764E-03, -5.25573058E-06,
                       9.93915425E-10, -6.45038285E-14, -3.02150066E+03,
                       1.55888265E+01])))

species(name='NOX(27)',
        atoms='N:1 O:1 X:1',
        thermo=(NASA([100.00, 883.92],
                     [-1.32973548E+00,  3.47562426E-02, -7.28194042E-05,
                       6.89500051E-08, -2.39273384E-11, -1.35697447E+04,
                       4.18005025E+00]),
                NASA([883.92, 5000.00],
                     [ 2.03742391E+00,  6.83863771E-03, -3.92545197E-06,
                       7.59718741E-10, -5.08385406E-14, -1.36696435E+04,
                      -8.84700636E+00])))

species(name='H2NX(28)',
        atoms='H:2 N:1 X:1',
        thermo=(NASA([100.00, 1048.31],
                     [-1.05942192E+00,  2.24143331E-02, -2.76852659E-05,
                       1.70374041E-08, -4.02944869E-12, -4.95950854E+03,
                       2.89982344E+00]),
                NASA([1048.31, 5000.00],
                     [ 3.79074210E+00,  3.90687362E-03, -1.20218810E-06,
                       1.94864152E-10, -1.26692837E-14, -5.97635653E+03,
                      -2.07280172E+01])))

species(name='H3NX(29)',
        atoms='H:3 N:1 X:1',
        thermo=(NASA([100.00, 891.64],
                     [-1.32281214E+00,  3.32032140E-02, -5.81075215E-05,
                       5.25354458E-08, -1.78678769E-11, -1.42509110E+04,
                       6.84407165E+00]),
                NASA([891.64, 5000.00],
                     [ 1.51792716E+00,  1.10206994E-02, -4.91143838E-06,
                       8.89255447E-10, -5.84327584E-14, -1.43822995E+04,
                      -4.43107885E+00])))

species(name='HNX(49)',
        atoms='H:1 N:1 X:1',
        thermo=(NASA([100.00, 1468.82],
                     [-9.44508350E-01,  1.68970084E-02, -1.92566252E-05,
                       1.00683229E-08, -1.93228787E-12, -1.58069080E+03,
                       2.43346293E+00]),
                NASA([1468.82, 5000.00],
                     [ 4.25852057E+00,  1.18125477E-04,  5.43428447E-07,
                      -1.28084124E-10,  9.06261684E-15, -2.82764942E+03,
                      -2.37102339E+01])))

species(name='NX(59)',
        atoms='N:1 X:1',
        thermo=(NASA([100.00, 879.02],
                     [-6.34129886E-01,  1.45654963E-02, -2.38195774E-05,
                       1.78134733E-08, -5.04559639E-12,  4.54778303E+03,
                       1.36000002E+00]),
                NASA([879.02, 5000.00],
                     [ 2.37436694E+00,  8.75702550E-04, -4.59433345E-07,
                       9.72310153E-11, -7.12295754E-15,  4.01886034E+03,
                      -1.27664158E+01])))

species(name='NOX2(76)',
        atoms='N:1 O:1 X:2',
        thermo=(NASA([100.00, 887.38],
                     [-1.41599548E+00,  3.89447366E-02, -8.78820959E-05,
                       8.69122977E-08, -3.09428541E-11, -1.11429070E+04,
                       6.56311046E+00]),
                NASA([887.38, 5000.00],
                     [ 1.19942292E+00,  8.52624341E-03, -4.97349642E-06,
                       9.67335485E-10, -6.46560872E-14, -1.08736143E+04,
                      -1.60950731E+00])),
        size=2.0)

#-------------------------------------------------------------------------------
# Reaction data
#-------------------------------------------------------------------------------
#  Reaction index: Chemkin #1; RMG #2
#  Library reaction: Surface/CPOX_Pt/Deutschmann2006
#  Flux pairs: O2(2), OX(10); X(1), OX(10); X(1), OX(10);

# surface1 Reaction 1
surface_reaction('X(1) + X(1) + O2(2) <=> OX(10) + OX(10)', [1.890000e+21, -0.5, 0.0])
#  Reaction index: Chemkin #2; RMG #25
#  Template reaction: Surface_Adsorption_Dissociative
#  Flux pairs: NH3(6), H2NX(28); NH3(6), HX(9);
#  Estimated using template [Adsorbate;VacantSite1;VacantSite2] for rate rule [N;VacantSite1;VacantSite2]
#  Euclidian distance = 1.0
#  Multiplied by reaction path degeneracy 3.0
#  family: Surface_Adsorption_Dissociative

# surface1 Reaction 2
surface_reaction('X(1) + X(1) + NH3(6) <=> HX(9) + H2NX(28)', stick(4.800000e-02, 0.0, 0.0))
#  Reaction index: Chemkin #3; RMG #26
#  Template reaction: Surface_Adsorption_vdW
#  Flux pairs: X(1), H3NX(29); NH3(6), H3NX(29);
#  Matched reaction 1 X + H3N <=> H3NX in Surface_Adsorption_vdW/training
#  This reaction matched rate rule [Adsorbate;VacantSite]
#  family: Surface_Adsorption_vdW
#  metal: None
#  facet: None
#  site: None

# surface1 Reaction 3
surface_reaction('X(1) + NH3(6) <=> H3NX(29)', stick(2.500000e-02, 0.0, 0.0))
#  Reaction index: Chemkin #4; RMG #67
#  Template reaction: Surface_Dissociation_vdW
#  Flux pairs: H3NX(29), HX(9); H3NX(29), H2NX(28);
#  Matched reaction 35 X_4 + NH3_X <=> NH2_X + H* in Surface_Dissociation_vdW/training
#  This reaction matched rate rule [N-H;VacantSite]
#  family: Surface_Dissociation_vdW
#  metal: None
#  facet: None
#  site: None

# surface1 Reaction 4
surface_reaction('X(1) + H3NX(29) <=> HX(9) + H2NX(28)', [3.460000e+20, 0.0, 22.228])
#  Reaction index: Chemkin #5; RMG #54
#  Template reaction: Surface_Dissociation
#  Flux pairs: H2NX(28), HNX(49); H2NX(28), HX(9);
#  Matched reaction 49 Ni_4 + NH2_X <=> NHX_1 + HX_5 in Surface_Dissociation/training
#  This reaction matched rate rule [N-H2;VacantSite]
#  family: Surface_Dissociation
#  metal: None
#  facet: None
#  site: None

# surface1 Reaction 5
surface_reaction('X(1) + H2NX(28) <=> HX(9) + HNX(49)', [2.010000e+21, 0.0, 26.291])
#  Reaction index: Chemkin #6; RMG #57
#  Template reaction: Surface_Abstraction_vdW
#  Estimated using template [N-R;Adsorbate1] for rate rule [N-R;*=NH]
#  Euclidian distance = 3.0
#  Multiplied by reaction path degeneracy 3.0
#  family: Surface_Abstraction_vdW

# surface1 Reaction 6
surface_reaction('HNX(49) + H3NX(29) <=> H2NX(28) + H2NX(28)', [1.557000e+21, 0.0, 13.376])
#  Reaction index: Chemkin #7; RMG #15
#  Library reaction: Surface/CPOX_Pt/Deutschmann2006
#  Flux pairs: OX(10), HOX(13); HX(9), X(1);

# surface1 Reaction 7
surface_reaction('OX(10) + HX(9) <=> X(1) + HOX(13)', [1.280000e+21, 0.0, 2.677])
#  Reaction index: Chemkin #8; RMG #21
#  Template reaction: Surface_Adsorption_Dissociative
#  Flux pairs: H2O(3), HOX(13); H2O(3), HX(9);
#  Estimated using template [Adsorbate;VacantSite1;VacantSite2] for rate rule [H2O;VacantSite1;VacantSite2]
#  Euclidian distance = 3.0
#  Multiplied by reaction path degeneracy 2.0
#  family: Surface_Adsorption_Dissociative
#  Ea raised from 0.0 to 62.3 kJ/mol to match endothermicity of reaction.

# surface1 Reaction 8
surface_reaction('X(1) + X(1) + H2O(3) <=> HX(9) + HOX(13)', stick(3.200000e-02, 0.0, 14.899))
#  Reaction index: Chemkin #9; RMG #55
#  Template reaction: Surface_Abstraction
#  Flux pairs: H2NX(28), HOX(13); OX(10), HNX(49);
#  Matched reaction 40 H2NX + O* <=> OH* + HNX in Surface_Abstraction/training
#  This reaction matched rate rule [O;*-N-H]
#  family: Surface_Abstraction
#  metal: None
#  facet: None
#  site: None

# surface1 Reaction 9
surface_reaction('OX(10) + H2NX(28) <=> HOX(13) + HNX(49)', [1.784000e+21, 0.0, 33.44])
#  Reaction index: Chemkin #10; RMG #68
#  Template reaction: Surface_Abstraction_vdW
#  Matched reaction 47 O* + H3NX <=> H2NX + OH_4* in Surface_Abstraction_vdW/training
#  This reaction matched rate rule [N-R;*=O]
#  family: Surface_Abstraction_vdW
#  metal: None
#  facet: None
#  site: None
#  Ea raised from 56.0 to 59.6 kJ/mol to match endothermicity of reaction.

# surface1 Reaction 10
surface_reaction('OX(10) + H3NX(29) <=> HOX(13) + H2NX(28)', [1.557000e+21, 0.0, 14.245])
#  Reaction index: Chemkin #11; RMG #6
#  Library reaction: Surface/CPOX_Pt/Deutschmann2006
#  Flux pairs: X(1), H2OX(14); H2O(3), H2OX(14);

# surface1 Reaction 11
surface_reaction('X(1) + H2O(3) <=> H2OX(14)', stick(7.500000e-01, 0.0, 0.0))
#  Reaction index: Chemkin #12; RMG #16
#  Library reaction: Surface/CPOX_Pt/Deutschmann2006
#  Flux pairs: H2OX(14), HOX(13); OX(10), HOX(13);

# surface1 Reaction 12
surface_reaction('OX(10) + H2OX(14) <=> HOX(13) + HOX(13)', [1.000000e+20, 0.0, 10.301])
#  Reaction index: Chemkin #13; RMG #18
#  Library reaction: Surface/CPOX_Pt/Deutschmann2006
#  Flux pairs: HOX(13), H2OX(14); HX(9), X(1);

# surface1 Reaction 13
surface_reaction('HX(9) + HOX(13) <=> X(1) + H2OX(14)', [2.040000e+21, 0.0, 15.827])
#  Reaction index: Chemkin #14; RMG #88
#  Template reaction: Surface_Abstraction_vdW
#  Estimated using template [O-R;Adsorbate1] for rate rule [O-R;*=NH]
#  Euclidian distance = 3.0
#  Multiplied by reaction path degeneracy 2.0
#  family: Surface_Abstraction_vdW

# surface1 Reaction 14
surface_reaction('HNX(49) + H2OX(14) <=> HOX(13) + H2NX(28)', [4.173127e+16, 1.136, 34.866])
#  Reaction index: Chemkin #15; RMG #70
#  Template reaction: Surface_Dissociation
#  Flux pairs: HNX(49), NX(59); HNX(49), HX(9);
#  Matched reaction 50 Ni_4 + NHX_2 <=> NX + HX_5 in Surface_Dissociation/training
#  This reaction matched rate rule [N-H;VacantSite]
#  family: Surface_Dissociation
#  metal: None
#  facet: None
#  site: None

# surface1 Reaction 15
surface_reaction('X(1) + HNX(49) <=> NX(59) + HX(9)', [2.900000e+21, 0.0, 28.203])
#  Reaction index: Chemkin #16; RMG #71
#  Template reaction: Surface_Abstraction
#  Flux pairs: HNX(49), HOX(13); OX(10), NX(59);
#  Matched reaction 41 HNX-2 + O* <=> OH* + NX in Surface_Abstraction/training
#  This reaction matched rate rule [O;*=N-H]
#  family: Surface_Abstraction
#  metal: None
#  facet: None
#  site: None

# surface1 Reaction 16
surface_reaction('OX(10) + HNX(49) <=> NX(59) + HOX(13)', [1.291000e+21, 0.0, 10.839])
#  Reaction index: Chemkin #17; RMG #74
#  Template reaction: Surface_Abstraction_vdW
#  Estimated using template [N-R;Adsorbate1] for rate rule [N-R;*#N]
#  Euclidian distance = 2.0
#  Multiplied by reaction path degeneracy 3.0
#  family: Surface_Abstraction_vdW

# surface1 Reaction 17
surface_reaction('NX(59) + H3NX(29) <=> HNX(49) + H2NX(28)', [1.557000e+21, 0.0, 13.376])
#  Reaction index: Chemkin #18; RMG #78
#  Template reaction: Surface_Abstraction
#  Flux pairs: H2NX(28), HNX(49); NX(59), HNX(49);
#  Estimated using template [Abstracting;*-N-H] for rate rule [:N#*;*-N-H]
#  Euclidian distance = 3.0
#  Multiplied by reaction path degeneracy 2.0
#  family: Surface_Abstraction

# surface1 Reaction 18
surface_reaction('NX(59) + H2NX(28) <=> HNX(49) + HNX(49)', [1.784000e+21, 0.0, 33.44])
#  Reaction index: Chemkin #19; RMG #92
#  Template reaction: Surface_Abstraction_vdW
#  Estimated using template [O-R;Adsorbate1] for rate rule [O-R;*#N]
#  Euclidian distance = 2.0
#  Multiplied by reaction path degeneracy 2.0
#  family: Surface_Abstraction_vdW

# surface1 Reaction 19
surface_reaction('NX(59) + H2OX(14) <=> HOX(13) + HNX(49)', [4.173127e+16, 1.136, 34.866])
#  Reaction index: Chemkin #20; RMG #98
#  Template reaction: Surface_Bidentate_Dissociation
#  Flux pairs: NOX2(76), NX(59); NOX2(76), OX(10);
#  Exact match found for rate rule [Combined]
#  Euclidian distance = 0
#  family: Surface_Bidentate_Dissociation

# surface1 Reaction 20
surface_reaction('NOX2(76) <=> OX(10) + NX(59)', [8.960000e+10, 0.422, 0.0])
#  Reaction index: Chemkin #21; RMG #24
#  Template reaction: Surface_Adsorption_Single
#  Flux pairs: X(1), NOX(27); NO(5), NOX(27);
#  Matched reaction 49 Pt + NO <=> NO_X in Surface_Adsorption_Single/training
#  This reaction matched rate rule [N=O;VacantSite]
#  family: Surface_Adsorption_Single
#  metal: None
#  facet: None
#  site: None

# surface1 Reaction 21
surface_reaction('X(1) + NO(5) <=> NOX(27)', stick(1.900000e-02, 0.0, 0.0))
#  Reaction index: Chemkin #22; RMG #105
#  Template reaction: Surface_DoubleBond_to_Bidentate
#  Flux pairs: NOX(27), NOX2(76); X(1), NOX2(76);
#  Exact match found for rate rule [Combined;VacantSite]
#  Euclidian distance = 0
#  family: Surface_DoubleBond_to_Bidentate

# surface1 Reaction 22
surface_reaction('X(1) + NOX(27) <=> NOX2(76)', [4.270000e+19, 0.549, 4.941])
#  Reaction index: Chemkin #23; RMG #22
#  Template reaction: Surface_Adsorption_Bidentate
#  Flux pairs: X(1), N2X2(25); X(1), N2X2(25); N2(4), N2X2(25);
#  Exact match found for rate rule [Adsorbate;VacantSite1;VacantSite2]
#  Euclidian distance = 0
#  Multiplied by reaction path degeneracy 2.0
#  family: Surface_Adsorption_Bidentate

# surface1 Reaction 23
surface_reaction('X(1) + X(1) + N2(4) <=> N2X2(25)', stick(2.000000e-01, 0.0, 0.0))
#  Reaction index: Chemkin #24; RMG #104
#  Template reaction: Surface_Bidentate_Dissociation
#  Flux pairs: N2X2(25), NX(59); N2X2(25), NX(59);
#  Exact match found for rate rule [Combined]
#  Euclidian distance = 0
#  family: Surface_Bidentate_Dissociation
#  Ea raised from 0.0 to 182.6 kJ/mol to match endothermicity of reaction.

# surface1 Reaction 24
surface_reaction('N2X2(25) <=> NX(59) + NX(59)', [8.960000e+10, 0.422, 43.642])
#  Reaction index: Chemkin #25; RMG #138
#  Template reaction: Surface_Abstraction
#  Flux pairs: NOX2(76), N2X2(25); NX(59), OX(10);
#  Estimated using template [Abstracting;Donating] for rate rule [:N#*;*-O-N]
#  Euclidian distance = 3.605551275463989
#  family: Surface_Abstraction

# surface1 Reaction 25
surface_reaction('NX(59) + NOX2(76) <=> OX(10) + N2X2(25)', [3.049653e+21, -0.017, 12.607])
#  Reaction index: Chemkin #26; RMG #23
#  Template reaction: Surface_Adsorption_vdW
#  Flux pairs: X(1), N2X(26); N2(4), N2X(26);
#  From training reaction 1 used for Adsorbate;VacantSite
#  Exact match found for rate rule [Adsorbate;VacantSite]
#  Euclidian distance = 0
#  family: Surface_Adsorption_vdW

# surface1 Reaction 26
surface_reaction('X(1) + N2(4) <=> N2X(26)', stick(2.500000e-02, 0.0, 0.0))
#  Reaction index: Chemkin #27; RMG #172
#  Template reaction: Surface_vdW_to_Bidentate
#  Flux pairs: N2X(26), N2X2(25); X(1), N2X2(25);
#  Exact match found for rate rule [Combined;VacantSite]
#  Euclidian distance = 0
#  Multiplied by reaction path degeneracy 2.0
#  family: Surface_vdW_to_Bidentate

# surface1 Reaction 27
surface_reaction('X(1) + N2X(26) <=> N2X2(25)', [2.000000e+19, 0.0, 0.0])
